NOVO24/1726526/Linhas.dss
! ==========================================================
! LINHAS — geradas de SSDMT
! Barras = PAC_1 / PAC_2 da BDGD (preservados)
! ==========================================================
New Line.247400613 Bus1=node_442881739.1.2.3 Bus2=node_443026627.1.2.3 LineCode=CND_50_3F Length=29.13 Units=m
New Line.243996156 Bus1=node_426213623.1.2.3 Bus2=node_426212823.1.2.3 LineCode=CND_19_3F Length=34.84 Units=m
New Line.245795757 Bus1=node_435225006.3 Bus2=node_435225007.3 LineCode=CND_907_1F Length=375.67 Units=m
New Line.247400278 Bus1=node_443024925.1.2.3 Bus2=node_442882222.1.2.3 LineCode=CND_20_3F Length=27.10 Units=m
New Line.245475020 Bus1=node_433960475.1 Bus2=node_433813070.1 LineCode=CND_907_1F Length=130.32 Units=m
New Line.1546308155 Bus1=node_1865764760.3 Bus2=node_1865764771.3 LineCode=CND_910_1F Length=2.75 Units=m
New Line.243994870 Bus1=node_426039478.3 Bus2=node_426039712.3 LineCode=CND_907_1F Length=151.07 Units=m
New Line.247401083 Bus1=node_443028984.1.2.3 Bus2=node_443028985.1.2.3 LineCode=CND_50_3F Length=26.78 Units=m
New Line.245793564 Bus1=node_434120657.2 Bus2=node_434763148.2 LineCode=CND_907_1F Length=126.89 Units=m
New Line.247234082 Bus1=node_442434383.1.2.3 Bus2=node_442434384.1.2.3 LineCode=CND_4_3F Length=29.45 Units=m
New Line.1143684802 Bus1=node_1409633234.1.2.3 Bus2=node_1409633264.1.2.3 LineCode=CND_4_3F Length=59.07 Units=m
New Line.247402219 Bus1=node_442591456.1.2.3 Bus2=node_443292309.1.2.3 LineCode=CND_13_3F Length=58.67 Units=m
New Line.244161765 Bus1=node_426646636.1.2.3 Bus2=node_426646637.1.2.3 LineCode=CND_19_3F Length=15.41 Units=m
New Line.346520876 Bus1=node_1983544645.1 Bus2=node_1983544609.1 LineCode=CND_907_1F Length=2.51 Units=m
New Line.243994621 Bus1=node_426038482.1 Bus2=node_426038483.1 LineCode=CND_907_1F Length=125.89 Units=m
New Line.243997850 Bus1=node_426500735.1 Bus2=node_426498830.1 LineCode=CND_907_1F Length=267.49 Units=m
New Line.243656647 Bus1=node_424391449.1.2.3 Bus2=node_424391229.1.2.3 LineCode=CND_50_3F Length=44.10 Units=m
New Line.247234529 Bus1=node_426805874.2 Bus2=node_442591211.2 LineCode=CND_909_1F Length=53.60 Units=m
New Line.247400989 Bus1=node_443026942.1.2.3 Bus2=node_443028515.1.2.3 LineCode=CND_50_3F Length=25.80 Units=m
New Line.245796780 Bus1=node_435367543.1.2.3 Bus2=node_435367544.1.2.3 LineCode=CND_4_3F Length=28.06 Units=m
New Line.245793718 Bus1=node_434762793.1 Bus2=node_434763152.1 LineCode=CND_907_1F Length=106.84 Units=m
New Line.243997112 Bus1=node_426497513.1 Bus2=node_426497514.1 LineCode=CND_907_1F Length=107.39 Units=m
New Line.243995085 Bus1=node_426039993.1.2.3 Bus2=node_426040017.1.2.3 LineCode=CND_11_3F Length=64.82 Units=m
New Line.243994252 Bus1=node_425868816.1.2.3 Bus2=node_425868861.1.2.3 LineCode=CND_4_3F Length=29.89 Units=m
New Line.243996887 Bus1=node_426350392.1.2.3 Bus2=node_426350393.1.2.3 LineCode=CND_11_3F Length=69.36 Units=m
New Line.243996966 Bus1=node_426350787.1.2.3 Bus2=node_426350788.1.2.3 LineCode=CND_11_3F Length=128.06 Units=m
New Line.243994152 Bus1=node_425868655.1.2.3 Bus2=node_425868656.1.2.3 LineCode=CND_28_3F Length=20.65 Units=m
New Line.243804381 Bus1=node_425709880.1.2.3 Bus2=node_425709881.1.2.3 LineCode=CND_88_3F Length=30.75 Units=m
New Line.244162708 Bus1=node_426805943.1.2.3 Bus2=node_426805944.1.2.3 LineCode=CND_11_3F Length=89.10 Units=m
New Line.245635648 Bus1=node_434120127.2 Bus2=node_434278411.2 LineCode=CND_907_1F Length=150.85 Units=m
New Line.245635866 Bus1=node_434279507.1.2.3 Bus2=node_434121475.1.2.3 LineCode=CND_88_3F Length=24.11 Units=m
New Line.247401951 Bus1=node_443162109.1.2.3 Bus2=node_443161993.1.2.3 LineCode=CND_50_3F Length=30.96 Units=m
New Line.246742727 Bus1=node_426041088.1.2.3 Bus2=node_439689670.1.2.3 LineCode=CND_19_3F Length=20.57 Units=m
New Line.243994800 Bus1=node_426039363.3 Bus2=node_426039378.3 LineCode=CND_907_1F Length=104.06 Units=m
New Line.247233985 Bus1=node_434759664.3 Bus2=node_434760818.3 LineCode=CND_909_1F Length=52.52 Units=m
New Line.245794343 Bus1=node_434908760.1.2.3 Bus2=node_434908761.1.2.3 LineCode=CND_4_3F Length=32.32 Units=m
New Line.245475046 Bus1=node_433813410.1 Bus2=node_433813449.1 LineCode=CND_907_1F Length=56.57 Units=m
New Line.244162392 Bus1=node_426804354.2 Bus2=node_1359034945.2 LineCode=CND_907_1F Length=50.06 Units=m
New Line.247400165 Bus1=node_442594568.1 Bus2=node_442882187.1 LineCode=CND_909_1F Length=35.63 Units=m
New Line.245143020 Bus1=node_432016867.1.2.3 Bus2=node_432016177.1.2.3 LineCode=CND_20_3F Length=49.81 Units=m
New Line.247399261 Bus1=node_442732148.1.2.3 Bus2=node_442732149.1.2.3 LineCode=CND_4_3F Length=31.94 Units=m
New Line.245474830 Bus1=node_433813529.2 Bus2=node_433813530.2 LineCode=CND_907_1F Length=116.38 Units=m
New Line.247234926 Bus1=node_442593195.1.2.3 Bus2=node_442593155.1.2.3 LineCode=CND_50_3F Length=32.90 Units=m
New Line.245636456 Bus1=node_434281411.3 Bus2=node_434282200.3 LineCode=CND_907_1F Length=118.23 Units=m
New Line.245635735 Bus1=node_434278327.1.2.3 Bus2=node_434278857.1.2.3 LineCode=CND_11_3F Length=115.30 Units=m
New Line.245793875 Bus1=node_434906408.1.2.3 Bus2=node_434906409.1.2.3 LineCode=CND_4_3F Length=28.46 Units=m
New Line.247399955 Bus1=node_442881618.1.2.3 Bus2=node_442730339.1.2.3 LineCode=CND_20_3F Length=35.95 Units=m
New Line.247402954 Bus1=node_443294638.1.2.3 Bus2=node_443295171.1.2.3 LineCode=CND_20_3F Length=27.16 Units=m
New Line.247400166 Bus1=node_442882188.1 Bus2=node_442730429.1 LineCode=CND_909_1F Length=32.55 Units=m
New Line.245635204 Bus1=node_434121605.1.2.3 Bus2=node_434121606.1.2.3 LineCode=CND_20_3F Length=41.17 Units=m
New Line.244161548 Bus1=node_426645546.2 Bus2=node_426645552.2 LineCode=CND_907_1F Length=63.46 Units=m
New Line.243804650 Bus1=node_425711229.1.2.3 Bus2=node_425711149.1.2.3 LineCode=CND_4_3F Length=31.02 Units=m
New Line.243996982 Bus1=node_426350393.2 Bus2=node_426350868.2 LineCode=CND_902_1F Length=65.68 Units=m
New Line.244162608 Bus1=node_426805443.1.2.3 Bus2=node_426805158.1.2.3 LineCode=CND_11_3F Length=78.93 Units=m
New Line.243995287 Bus1=node_426041758.1.2.3 Bus2=node_426041813.1.2.3 LineCode=CND_19_3F Length=32.74 Units=m
New Line.245796531 Bus1=node_435366290.1.2.3 Bus2=node_435365980.1.2.3 LineCode=CND_4_3F Length=29.86 Units=m
New Line.1042171201 Bus1=node_1308742851.3 Bus2=node_1308743119.3 LineCode=CND_923_1F Length=6.23 Units=m
New Line.245796052 Bus1=node_435226356.1 Bus2=node_435225591.1 LineCode=CND_907_1F Length=141.75 Units=m
New Line.243995391 Bus1=node_426039218.1.2.3 Bus2=node_426209799.1.2.3 LineCode=CND_11_3F Length=149.17 Units=m
New Line.243995361 Bus1=node_426209648.3 Bus2=node_426209643.3 LineCode=CND_907_1F Length=121.47 Units=m
New Line.245943784 Bus1=node_435518595.1 Bus2=node_435518596.1 LineCode=CND_907_1F Length=145.33 Units=m
New Line.245637936 Bus1=node_434594747.1 Bus2=node_434594653.1 LineCode=CND_907_1F Length=92.68 Units=m
New Line.243997122 Bus1=node_426351188.1 Bus2=node_426497513.1 LineCode=CND_907_1F Length=110.92 Units=m
New Line.2188656163 Bus1=node_2494676765.1.2.3 Bus2=node_2494676778.1.2.3 LineCode=CND_53_3F Length=117.56 Units=m
New Line.243996644 Bus1=node_426038768.1.2.3 Bus2=node_426349157.1.2.3 LineCode=CND_11_3F Length=117.90 Units=m
New Line.245143445 Bus1=node_432018991.1.2.3 Bus2=node_432018850.1.2.3 LineCode=CND_30_3F Length=168.51 Units=m
New Line.243995157 Bus1=node_426039908.2 Bus2=node_426041163.2 LineCode=CND_907_1F Length=104.05 Units=m
New Line.244162281 Bus1=node_426803800.3 Bus2=node_426803801.3 LineCode=CND_907_1F Length=107.01 Units=m
New Line.243996008 Bus1=node_426212879.1.2.3 Bus2=node_426212884.1.2.3 LineCode=CND_19_3F Length=41.33 Units=m
New Line.245793423 Bus1=node_434762442.1 Bus2=node_434762407.1 LineCode=CND_907_1F Length=82.35 Units=m
New Line.243995982 Bus1=node_426212753.1.2.3 Bus2=node_426212754.1.2.3 LineCode=CND_19_3F Length=29.03 Units=m
New Line.246741861 Bus1=node_435366156.1.2.3 Bus2=node_439496399.1.2.3 LineCode=CND_19_3F Length=51.82 Units=m
New Line.245793489 Bus1=node_434119597.1.2.3 Bus2=node_434762002.1.2.3 LineCode=CND_11_3F Length=132.60 Units=m
New Line.245636245 Bus1=node_434281256.3 Bus2=node_434281411.3 LineCode=CND_907_1F Length=171.84 Units=m
New Line.2302855369 Bus1=node_2856446180.1.2.3 Bus2=node_2856446186.1.2.3 LineCode=CND_10_3F Length=38.24 Units=m
New Line.243997397 Bus1=node_426498866.1 Bus2=node_426498935.1 LineCode=CND_907_1F Length=127.56 Units=m
New Line.247401779 Bus1=node_443161288.1.2.3 Bus2=node_443161289.1.2.3 LineCode=CND_50_3F Length=31.90 Units=m
New Line.245635657 Bus1=node_434122066.1.2.3 Bus2=node_434278467.1.2.3 LineCode=CND_11_3F Length=158.51 Units=m
New Line.2438038844 Bus1=node_2607507569.1.2.3 Bus2=node_2607506229.1.2.3 LineCode=CND_20_3F Length=27.10 Units=m
New Line.245793438 Bus1=node_434762517.1 Bus2=node_434762442.1 LineCode=CND_907_1F Length=106.51 Units=m
New Line.245635320 Bus1=node_434122185.3 Bus2=node_434122186.3 LineCode=CND_907_1F Length=108.81 Units=m
New Line.247399275 Bus1=node_425867518.1.2.3 Bus2=node_442732219.1.2.3 LineCode=CND_20_3F Length=44.74 Units=m
New Line.243995925 Bus1=node_426212354.1 Bus2=node_426210633.1 LineCode=CND_907_1F Length=188.29 Units=m
New Line.1544562355 Bus1=node_1864055078.1.2.3 Bus2=node_1864055096.1.2.3 LineCode=CND_20_3F Length=28.71 Units=m
New Line.246742748 Bus1=node_434121301.3 Bus2=node_439689786.3 LineCode=CND_902_1F Length=82.29 Units=m
New Line.954124064 Bus1=node_1220171980.1.2.3 Bus2=node_1216423800.1.2.3 LineCode=CND_10_3F Length=31.69 Units=m
New Line.243995969 Bus1=node_426212688.2 Bus2=node_426212689.2 LineCode=CND_907_1F Length=127.88 Units=m
New Line.245637407 Bus1=node_434592029.1.2.3 Bus2=node_434592043.1.2.3 LineCode=CND_20_3F Length=38.23 Units=m
New Line.247400932 Bus1=node_443028225.1.2.3 Bus2=node_443028226.1.2.3 LineCode=CND_50_3F Length=28.07 Units=m
New Line.247235278 Bus1=node_442594433.1.2.3 Bus2=node_442594637.1.2.3 LineCode=CND_50_3F Length=31.28 Units=m
New Line.245943818 Bus1=node_435518765.2 Bus2=node_435518766.2 LineCode=CND_907_1F Length=94.30 Units=m
New Line.2761961373 Bus1=node_2978216087.1.2.3 Bus2=node_2978216301.1.2.3 LineCode=CND_3_3F Length=58.72 Units=m
New Line.246742662 Bus1=node_1205313512.2 Bus2=node_439689356.2 LineCode=CND_902_1F Length=32.52 Units=m
New Line.247401146 Bus1=node_440752118.1.2.3 Bus2=node_443158009.1.2.3 LineCode=CND_50_3F Length=31.51 Units=m
New Line.247401934 Bus1=node_443160769.1.2.3 Bus2=node_443162064.1.2.3 LineCode=CND_50_3F Length=31.93 Units=m
New Line.247400984 Bus1=node_442731635.1.2.3 Bus2=node_443028490.1.2.3 LineCode=CND_50_3F Length=28.60 Units=m
New Line.245143000 Bus1=node_432016763.1.2.3 Bus2=node_432016768.1.2.3 LineCode=CND_20_3F Length=25.83 Units=m
New Line.243995700 Bus1=node_426211343.1 Bus2=node_426211344.1 LineCode=CND_907_1F Length=140.58 Units=m
New Line.245637827 Bus1=node_434594198.3 Bus2=node_434594199.3 LineCode=CND_907_1F Length=101.26 Units=m
New Line.243993717 Bus1=node_425866472.1.2.3 Bus2=node_425866467.1.2.3 LineCode=CND_4_3F Length=8.91 Units=m
New Line.245475075 Bus1=node_433813381.1 Bus2=node_433960755.1 LineCode=CND_907_1F Length=49.39 Units=m
New Line.246741919 Bus1=node_435367024.1 Bus2=node_439496689.1 LineCode=CND_902_1F Length=49.80 Units=m
New Line.243803775 Bus1=node_425547936.1.2.3 Bus2=node_425547937.1.2.3 LineCode=CND_4_3F Length=22.26 Units=m
New Line.1630686969 Bus1=100_1630687012.1.2.3 Bus2=100_1630687023.1.2.3 LineCode=CND_1536_3F Length=4.51 Units=m
New Line.245635840 Bus1=node_434279381.2 Bus2=node_434279382.2 LineCode=CND_907_1F Length=107.11 Units=m
New Line.244364836 Bus1=node_428000619.1 Bus2=node_428001439.1 LineCode=CND_907_1F Length=69.63 Units=m
New Line.245634352 Bus1=node_433962155.3 Bus2=node_433962129.3 LineCode=CND_907_1F Length=117.39 Units=m
New Line.245796503 Bus1=node_426644597.1.2.3 Bus2=node_426644511.1.2.3 LineCode=CND_11_3F Length=128.46 Units=m
New Line.243804593 Bus1=node_425710860.1.2.3 Bus2=node_425710854.1.2.3 LineCode=CND_28_3F Length=4.72 Units=m
New Line.243996910 Bus1=node_426350507.1.2.3 Bus2=node_426350508.1.2.3 LineCode=CND_11_3F Length=131.38 Units=m
New Line.245793422 Bus1=node_434762432.1.2.3 Bus2=node_434762438.1.2.3 LineCode=CND_11_3F Length=83.34 Units=m
New Line.246933383 Bus1=node_440922179.1.2.3 Bus2=node_440921768.1.2.3 LineCode=CND_78_3F Length=110.46 Units=m
New Line.246932961 Bus1=node_440752632.1.2.3 Bus2=node_440752633.1.2.3 LineCode=CND_20_3F Length=36.51 Units=m
New Line.247234206 Bus1=node_439497068.1.2.3 Bus2=node_442434820.1.2.3 LineCode=CND_20_3F Length=35.13 Units=m
New Line.247234330 Bus1=node_442435627.1.2.3 Bus2=node_442435628.1.2.3 LineCode=CND_4_3F Length=32.96 Units=m
New Line.247402360 Bus1=node_443292884.1.2.3 Bus2=node_443293008.1.2.3 LineCode=CND_50_3F Length=31.28 Units=m
New Line.247399366 Bus1=node_442732659.1.2.3 Bus2=node_442732563.1.2.3 LineCode=CND_50_3F Length=29.02 Units=m
New Line.246932449 Bus1=node_425709478.1.2.3 Bus2=node_440750057.1.2.3 LineCode=CND_20_3F Length=2.82 Units=m
New Line.247401662 Bus1=node_439496649.1.2.3 Bus2=node_443160704.1.2.3 LineCode=CND_50_3F Length=10.82 Units=m
New Line.247234960 Bus1=node_435516821.3 Bus2=node_439496803.3 LineCode=CND_909_1F Length=80.95 Units=m
New Line.247233979 Bus1=node_426348338.1.2.3 Bus2=node_442433869.1.2.3 LineCode=CND_50_3F Length=46.34 Units=m
New Line.243996947 Bus1=node_426350692.2 Bus2=node_426350627.2 LineCode=CND_907_1F Length=142.22 Units=m
New Line.243997768 Bus1=node_426500800.2 Bus2=node_426498186.2 LineCode=CND_907_1F Length=197.59 Units=m
New Line.245793314 Bus1=node_434761124.1 Bus2=node_434761898.1 LineCode=CND_907_1F Length=157.25 Units=m
New Line.2299595906 Bus1=node_2575313728.3 Bus2=node_2575313734.3 LineCode=CND_910_1F Length=103.83 Units=m
New Line.245943371 Bus1=node_434594089.2 Bus2=node_435515768.2 LineCode=CND_907_1F Length=93.92 Units=m
New Line.1630686280 Bus1=node_1950826521.1.2.3 Bus2=node_1950826532.1.2.3 LineCode=CND_4_3F Length=32.37 Units=m
New Line.244161391 Bus1=node_426644677.1.2.3 Bus2=node_426644506.1.2.3 LineCode=CND_19_3F Length=33.17 Units=m
New Line.1495705081 Bus1=node_1804277809.1.2.3 Bus2=node_1804277728.1.2.3 LineCode=CND_3_3F Length=51.85 Units=m
New Line.247398836 Bus1=node_442730019.1.2.3 Bus2=node_425868850.1.2.3 LineCode=CND_13_3F Length=91.33 Units=m
New Line.245143286 Bus1=node_432018091.1.2.3 Bus2=node_432018206.1.2.3 LineCode=CND_271_3F Length=116.30 Units=m
New Line.2575459047 Bus1=100_2658893210.1.2.3 Bus2=100_2658892508.1.2.3 LineCode=CND_76_3F Length=4.68 Units=m
New Line.247234835 Bus1=node_442592740.1.2.3 Bus2=node_442592741.1.2.3 LineCode=CND_4_3F Length=21.65 Units=m
New Line.245636001 Bus1=node_434280190.1.2.3 Bus2=node_434279351.1.2.3 LineCode=CND_20_3F Length=48.74 Units=m
New Line.247402071 Bus1=node_439496598.1.2.3 Bus2=node_2505467747.1.2.3 LineCode=CND_50_3F Length=10.74 Units=m
New Line.1046632535 Bus1=node_425707768.1.2.3 Bus2=node_1313234416.1.2.3 LineCode=CND_10_3F Length=2.84 Units=m
New Line.244366489 Bus1=node_428327313.1 Bus2=node_428327464.1 LineCode=CND_907_1F Length=35.14 Units=m
New Line.247400628 Bus1=node_442732095.1.2.3 Bus2=node_443026227.1.2.3 LineCode=CND_4_3F Length=31.42 Units=m
New Line.247399302 Bus1=node_442732353.1.2.3 Bus2=node_442732354.1.2.3 LineCode=CND_50_3F Length=35.57 Units=m
New Line.246932489 Bus1=node_440750268.1.2.3 Bus2=node_440750273.1.2.3 LineCode=CND_20_3F Length=31.98 Units=m
New Line.247234015 Bus1=node_442433815.1.2.3 Bus2=node_442433809.1.2.3 LineCode=CND_50_3F Length=42.42 Units=m
New Line.245142973 Bus1=node_425869490.1.2.3 Bus2=node_425869344.1.2.3 LineCode=CND_271_3F Length=95.75 Units=m
New Line.247402842 Bus1=node_443293623.1.2.3 Bus2=node_443295295.1.2.3 LineCode=CND_50_3F Length=26.03 Units=m
New Line.247401241 Bus1=node_434119577.1.2.3 Bus2=node_443158599.1.2.3 LineCode=CND_50_3F Length=86.61 Units=m
New Line.245793447 Bus1=node_434762368.1 Bus2=node_434762537.1 LineCode=CND_907_1F Length=106.18 Units=m
New Line.245636903 Bus1=node_434439284.2 Bus2=node_434439285.2 LineCode=CND_907_1F Length=131.08 Units=m
New Line.245793697 Bus1=node_426643392.2 Bus2=node_434905489.2 LineCode=CND_907_1F Length=92.60 Units=m
New Line.245636908 Bus1=node_426211129.1.2.3 Bus2=node_426210953.1.2.3 LineCode=CND_11_3F Length=136.41 Units=m
New Line.245637057 Bus1=node_434440053.3 Bus2=node_434440059.3 LineCode=CND_907_1F Length=135.09 Units=m
New Line.245636068 Bus1=node_434119517.1.2.3 Bus2=node_426039242.1.2.3 LineCode=CND_11_3F Length=114.29 Units=m
New Line.245474583 Bus1=node_433812290.1 Bus2=node_433812291.1 LineCode=CND_907_1F Length=108.63 Units=m
New Line.244161864 Bus1=node_426647131.3 Bus2=node_426647132.3 LineCode=CND_907_1F Length=183.21 Units=m
New Line.245795974 Bus1=node_435226095.1.2.3 Bus2=node_435223862.1.2.3 LineCode=CND_11_3F Length=90.96 Units=m
New Line.245944955 Bus1=node_435674903.1.2.3 Bus2=node_435675037.1.2.3 LineCode=CND_20_3F Length=35.25 Units=m
New Line.245636190 Bus1=node_434280971.1.2.3 Bus2=node_434281136.1.2.3 LineCode=CND_11_3F Length=93.36 Units=m
New Line.245944796 Bus1=node_435828537.1.2.3 Bus2=node_435828538.1.2.3 LineCode=CND_4_3F Length=31.95 Units=m
New Line.245794365 Bus1=node_434908870.1.2.3 Bus2=node_434908871.1.2.3 LineCode=CND_20_3F Length=32.95 Units=m
New Line.247401950 Bus1=node_443162143.1.2.3 Bus2=node_443162144.1.2.3 LineCode=CND_50_3F Length=30.54 Units=m
New Line.243996493 Bus1=node_426040638.1 Bus2=node_426348423.1 LineCode=CND_907_1F Length=34.90 Units=m
New Line.2045341252 Bus1=node_2403784146.1.2.3 Bus2=node_2403784121.1.2.3 LineCode=CND_4_3F Length=48.31 Units=m
New Line.243994916 Bus1=node_426039952.3 Bus2=node_426039958.3 LineCode=CND_907_1F Length=137.02 Units=m
New Line.243995360 Bus1=node_426209643.3 Bus2=node_426209644.3 LineCode=CND_907_1F Length=106.45 Units=m
New Line.246932919 Bus1=node_440751968.1.2.3 Bus2=node_440751987.1.2.3 LineCode=CND_20_3F Length=31.10 Units=m
New Line.245637732 Bus1=node_434593723.1.2.3 Bus2=node_434593724.1.2.3 LineCode=CND_20_3F Length=7.70 Units=m
New Line.247401368 Bus1=node_426041518.1.2.3 Bus2=node_443159234.1.2.3 LineCode=CND_50_3F Length=24.03 Units=m
New Line.2761963884 Bus1=node_2977434129.1.2.3 Bus2=node_2977434144.1.2.3 LineCode=CND_3_3F Length=50.73 Units=m
New Line.245795503 Bus1=node_435223736.3 Bus2=node_435223737.3 LineCode=CND_907_1F Length=49.41 Units=m
New Line.1404717711 Bus1=node_1700655977.3 Bus2=node_1700655953.3 LineCode=CND_902_1F Length=1.32 Units=m
New Line.245944253 Bus1=node_435516537.2 Bus2=node_435675533.2 LineCode=CND_907_1F Length=91.74 Units=m
New Line.246932985 Bus1=node_440752752.1.2.3 Bus2=node_440752753.1.2.3 LineCode=CND_20_3F Length=33.94 Units=m
New Line.245636582 Bus1=node_426213064.1.2.3 Bus2=node_434437680.1.2.3 LineCode=CND_11_3F Length=161.10 Units=m
New Line.245793633 Bus1=node_434762733.1 Bus2=node_434762867.1 LineCode=CND_907_1F Length=68.58 Units=m
New Line.245637916 Bus1=node_434594039.1.2.3 Bus2=node_434594644.1.2.3 LineCode=CND_4_3F Length=35.36 Units=m
New Line.245634958 Bus1=node_434120371.1 Bus2=node_434120372.1 LineCode=CND_907_1F Length=154.45 Units=m
New Line.245793729 Bus1=node_434121186.1.2.3 Bus2=node_434905054.1.2.3 LineCode=CND_11_3F Length=163.82 Units=m
New Line.245944187 Bus1=node_435675202.2 Bus2=node_435518765.2 LineCode=CND_907_1F Length=155.82 Units=m
New Line.245792859 Bus1=node_434759618.1.2.3 Bus2=node_434759443.1.2.3 LineCode=CND_11_3F Length=117.47 Units=m
New Line.245944950 Bus1=node_435829315.3 Bus2=node_435829316.3 LineCode=CND_907_1F Length=123.67 Units=m
New Line.244976550 Bus1=node_431330437.2 Bus2=node_431164144.2 LineCode=CND_926_1F Length=130.66 Units=m
New Line.245944018 Bus1=node_435674353.2 Bus2=node_435674354.2 LineCode=CND_907_1F Length=115.43 Units=m
New Line.245634110 Bus1=node_433961445.1 Bus2=node_433961540.1 LineCode=CND_907_1F Length=76.92 Units=m
New Line.245637611 Bus1=node_434592689.1.2.3 Bus2=node_434592763.1.2.3 LineCode=CND_11_3F Length=92.00 Units=m
New Line.246102201 Bus1=node_436306446.1.2.3 Bus2=node_436305202.1.2.3 LineCode=CND_11_3F Length=142.68 Units=m
New Line.243997146 Bus1=node_426350453.1.2.3 Bus2=node_426497608.1.2.3 LineCode=CND_11_3F Length=126.39 Units=m
New Line.246742610 Bus1=node_439689091.1.2.3 Bus2=node_439689092.1.2.3 LineCode=CND_28_3F Length=28.83 Units=m
New Line.245143043 Bus1=node_432016982.1.2.3 Bus2=node_432016977.1.2.3 LineCode=CND_271_3F Length=29.00 Units=m
New Line.246066454 Bus1=node_436570103.1 Bus2=node_436570227.1 LineCode=CND_907_1F Length=118.32 Units=m
New Line.2761962187 Bus1=node_2978215762.1.2.3 Bus2=node_2978215777.1.2.3 LineCode=CND_10_3F Length=62.73 Units=m
New Line.243996173 Bus1=node_426213708.1.2.3 Bus2=node_426213709.1.2.3 LineCode=CND_11_3F Length=101.36 Units=m
New Line.245635707 Bus1=node_434121701.1.2.3 Bus2=node_434278717.1.2.3 LineCode=CND_11_3F Length=101.49 Units=m
New Line.245634307 Bus1=node_426038463.1.2.3 Bus2=node_433962525.1.2.3 LineCode=CND_11_3F Length=131.57 Units=m
New Line.245635514 Bus1=node_434123074.1.2.3 Bus2=node_434122810.1.2.3 LineCode=CND_11_3F Length=97.67 Units=m
New Line.245946272 Bus1=node_435994831.2 Bus2=node_435994832.2 LineCode=CND_907_1F Length=138.09 Units=m
New Line.247399190 Bus1=node_425868285.1.2.3 Bus2=node_127459527.1.2.3 LineCode=CND_50_3F Length=21.31 Units=m
New Line.244162704 Bus1=node_426805923.1 Bus2=node_426805924.1 LineCode=CND_907_1F Length=134.46 Units=m
New Line.245795515 Bus1=node_435223796.1.2.3 Bus2=node_435223797.1.2.3 LineCode=CND_253_3F Length=34.68 Units=m
New Line.247402032 Bus1=node_443160829.1.2.3 Bus2=node_443291374.1.2.3 LineCode=CND_50_3F Length=35.44 Units=m
New Line.244366814 Bus1=node_428329092.3 Bus2=node_428329093.3 LineCode=CND_907_1F Length=73.78 Units=m
New Line.1123410587 Bus1=node_1392693593.1.2.3 Bus2=node_1392693604.1.2.3 LineCode=CND_4_3F Length=30.44 Units=m
New Line.247401074 Bus1=node_443028939.1.2.3 Bus2=node_440752047.1.2.3 LineCode=CND_20_3F Length=31.22 Units=m
...
